<routes>
    <vType id="car" accel="1.6" decel="4.5" sigma="0" length="4.5" minGap="2.2" maxSpeed="13.89" guiShape="passenger"/>

    <route id="west_to_east" edges="A1B1 B1C1"/>
    <route id="east_to_west" edges="C1B1 B1A1"/>
    <route id="south_to_north" edges="B0B1 B1B2"/>
    <route id="north_to_south" edges="B2B1 B1B0"/>

    <vehicle id="0" type="car" route="west_to_east" depart="0"/>
    <vehicle id="1" type="car" route="east_to_west" depart="2"/>
    <vehicle id="2" type="car" route="south_to_north" depart="4"/>
    <vehicle id="3" type="car" route="north_to_south" depart="6"/>
    <vehicle id="4" type="car" route="west_to_east" depart="8"/>
    <vehicle id="5" type="car" route="east_to_west" depart="10"/>
    <vehicle id="6" type="car" route="south_to_north" depart="12"/>
    <vehicle id="7" type="car" route="north_to_south" depart="14"/>
    <vehicle id="8" type="car" route="west_to_east" depart="16"/>
    <vehicle id="9" type="car" route="east_to_west" depart="18"/>
    <vehicle id="10" type="car" route="south_to_north" depart="20"/>
    <vehicle id="11" type="car" route="north_to_south" depart="22"/>
    <vehicle id="12" type="car" route="west_to_east" depart="24"/>
    <vehicle id="13" type="car" route="east_to_west" depart="26"/>
    <vehicle id="14" type="car" route="south_to_north" depart="28"/>
    <vehicle id="15" type="car" route="north_to_south" depart="30"/>
    <vehicle id="16" type="car" route="west_to_east" depart="32"/>
    <vehicle id="17" type="car" route="east_to_west" depart="34"/>
    <vehicle id="18" type="car" route="south_to_north" depart="36"/>
    <vehicle id="19" type="car" route="north_to_south" depart="38"/>
    <vehicle id="20" type="car" route="west_to_east" depart="40"/>
    <vehicle id="21" type="car" route="east_to_west" depart="42"/>
    <vehicle id="22" type="car" route="south_to_north" depart="44"/>
    <vehicle id="23" type="car" route="north_to_south" depart="46"/>
    <vehicle id="24" type="car" route="west_to_east" depart="48"/>
    <vehicle id="25" type="car" route="east_to_west" depart="50"/>
    <vehicle id="26" type="car" route="south_to_north" depart="52"/>
    <vehicle id="27" type="car" route="north_to_south" depart="54"/>
    <vehicle id="28" type="car" route="west_to_east" depart="56"/>
    <vehicle id="29" type="car" route="east_to_west" depart="58"/>
    <vehicle id="30" type="car" route="south_to_north" depart="60"/>
    <vehicle id="31" type="car" route="north_to_south" depart="62"/>
</routes>
