<configuration>
    <input>
        <net-file value="urban_grid.net.xml"/>
        <route-files value="urban_light.rou.xml"/>
    </input>
    <time>
        <begin value="0"/>
        <end value="100"/>
        <step-length value="0.1"/>
    </time>
    <processing>
        <time-to-teleport value="-1"/>
    </processing>
    <gui_only>
        <gui-settings-file value="gui-settings.xml"/>
    </gui_only>
</configuration>

