<routes>
    <vType id="car" accel="1.8" decel="4.5" sigma="0" length="4.5" minGap="2.5" maxSpeed="16.67" guiShape="passenger"/>

    <route id="west_to_east" edges="A1B1 B1C1"/>
    <route id="east_to_west" edges="C1B1 B1A1"/>
    <route id="south_to_north" edges="B0B1 B1B2"/>
    <route id="north_to_south" edges="B2B1 B1B0"/>

    <!-- Depart times are strictly increasing so dynamic OMNeT++ vehicle indices remain stable. -->
    <vehicle id="0" type="car" route="west_to_east" depart="0"/>
    <vehicle id="1" type="car" route="east_to_west" depart="4"/>
    <vehicle id="2" type="car" route="south_to_north" depart="8"/>
    <vehicle id="3" type="car" route="north_to_south" depart="12"/>
    <vehicle id="4" type="car" route="west_to_east" depart="16"/>
    <vehicle id="5" type="car" route="east_to_west" depart="20"/>
    <vehicle id="6" type="car" route="south_to_north" depart="24"/>
    <vehicle id="7" type="car" route="north_to_south" depart="28"/>
    <vehicle id="8" type="car" route="west_to_east" depart="32"/>
    <vehicle id="9" type="car" route="east_to_west" depart="36"/>
    <vehicle id="10" type="car" route="south_to_north" depart="40"/>
    <vehicle id="11" type="car" route="north_to_south" depart="44"/>
    <vehicle id="12" type="car" route="west_to_east" depart="48"/>
    <vehicle id="13" type="car" route="east_to_west" depart="52"/>
    <vehicle id="14" type="car" route="south_to_north" depart="56"/>
    <vehicle id="15" type="car" route="north_to_south" depart="60"/>
</routes>
